.MODEL BZX84C3V3 D(Is=4.5E-011 N=1.6 BV=3.3 IBV=1E-009 RS=0.1 CJO=1.623E-010 VJ=0.63 M=0.29 FC=0.5 TT=0 EG=1.1 XTI=3)       