Version 4
SHEET 1 880 680
WIRE -304 -64 -352 -64
WIRE -192 -64 -224 -64
WIRE -496 48 -592 48
WIRE -352 48 -352 -64
WIRE -352 48 -416 48
WIRE -304 48 -352 48
WIRE -192 48 -192 -64
WIRE -192 48 -240 48
WIRE 112 48 -16 48
WIRE 256 48 112 48
WIRE 336 48 256 48
WIRE 528 48 336 48
WIRE -16 96 -16 48
WIRE 112 96 112 48
WIRE 528 160 528 48
WIRE -592 176 -592 48
WIRE 256 176 256 48
WIRE 336 176 336 48
WIRE -192 192 -192 48
WIRE 112 192 112 160
WIRE 112 192 -192 192
WIRE -16 224 -16 160
WIRE -16 224 -192 224
WIRE -16 256 -16 224
WIRE 112 256 112 192
WIRE -592 368 -592 256
WIRE -192 368 -192 224
WIRE -192 368 -592 368
WIRE -16 368 -16 320
WIRE 48 368 -16 368
WIRE 112 368 112 320
WIRE 112 368 48 368
WIRE 256 368 256 240
WIRE 256 368 112 368
WIRE 336 368 336 240
WIRE 336 368 256 368
WIRE 528 368 528 240
WIRE 528 368 336 368
WIRE 48 448 48 368
FLAG 48 448 0
SYMBOL cap -240 32 R90
WINDOW 0 0 32 VBottom 2
WINDOW 3 32 32 VTop 2
SYMATTR InstName C1
SYMATTR Value 680n IC=0
SYMBOL voltage -592 160 R0
WINDOW 123 0 0 Left 2
WINDOW 39 0 0 Left 2
SYMATTR InstName V1
SYMATTR Value SINE(0 324.3 50)
SYMBOL res -400 32 R90
WINDOW 0 0 56 VBottom 2
WINDOW 3 32 56 VTop 2
SYMATTR InstName R1
SYMATTR Value 100
SYMBOL res -208 -80 R90
WINDOW 0 0 56 VBottom 2
WINDOW 3 32 56 VTop 2
SYMATTR InstName R2
SYMATTR Value 1Meg
SYMBOL diode 0 160 R180
WINDOW 0 24 64 Left 2
WINDOW 3 24 0 Left 2
SYMATTR InstName D1
SYMATTR Value 1N4007
SYMBOL diode 128 320 R180
WINDOW 0 24 64 Left 2
WINDOW 3 24 0 Left 2
SYMATTR InstName D2
SYMATTR Value 1N4007
SYMBOL diode 128 160 R180
WINDOW 0 24 64 Left 2
WINDOW 3 24 0 Left 2
SYMATTR InstName D3
SYMATTR Value 1N4007
SYMBOL diode 0 320 R180
WINDOW 0 24 64 Left 2
WINDOW 3 24 0 Left 2
SYMATTR InstName D4
SYMATTR Value 1N4007
SYMBOL zener 272 240 R180
WINDOW 0 24 64 Left 2
WINDOW 3 24 0 Left 2
SYMATTR InstName D5
SYMATTR Value BZX84C3V3
SYMATTR Description Diode
SYMATTR Type diode
SYMBOL cap 320 176 R0
SYMATTR InstName C2
SYMATTR Value 1000µ IC=0
TEXT -144 -168 Left 2 ;AC/DC Converter
TEXT -624 528 Left 2 !.include 1N4007.lib
TEXT -626 564 Left 2 !.tran 1
TEXT -624 496 Left 2 !.include BZX84C3V3.lib
